REMARK SMILES CCn1cc(C(=O)Nc2c(-c3ccccn3)nc3ccc(Br)cn23)c(=O)c2cc(F)c(N3CCN(C(=O)CCc4ccccc4)CC3)cc21
REMARK SMILES IDX 3 1 4 2 5 3 25 4 26 5 27 6 28 7 29 8 30 9 31 10 48 11 49 12
REMARK SMILES IDX 2 13 1 14 6 15 8 16 7 17 9 19 10 20 24 21 17 22 23 23 18 24
REMARK SMILES IDX 21 25 19 26 20 27 22 28 11 29 12 30 16 31 13 32 15 33 14 34
REMARK SMILES IDX 32 35 33 36 47 37 34 38 46 39 35 40 36 41 37 42 38 43 39 44
REMARK SMILES IDX 40 45 41 46 45 47 42 48 44 49 43 50
REMARK H PARENT 8 18
ROOT
ATOM      1  N   UNL     1      -0.777  -2.785  -0.110  1.00  0.00    -0.347 N 
ATOM      2  C   UNL     1      -2.099  -2.595  -0.220  1.00  0.00     0.104 A 
ATOM      3  C   UNL     1      -2.657  -1.334  -0.128  1.00  0.00     0.104 A 
ATOM      4  C   UNL     1      -1.858  -0.249   0.081  1.00  0.00     0.202 A 
ATOM      5  O   UNL     1      -2.285   0.917   0.175  1.00  0.00    -0.288 OA
ATOM      6  C   UNL     1      -0.476  -0.462   0.195  1.00  0.00     0.050 A 
ATOM      7  C   UNL     1       0.396   0.584   0.406  1.00  0.00     0.055 A 
ATOM      8  C   UNL     1       1.751   0.346   0.514  1.00  0.00     0.147 A 
ATOM      9  F   UNL     1       2.642   1.371   0.725  1.00  0.00    -0.205 F 
ATOM     10  C   UNL     1       2.286  -0.927   0.418  1.00  0.00     0.075 A 
ATOM     11  C   UNL     1       1.406  -1.968   0.207  1.00  0.00     0.056 A 
ATOM     12  C   UNL     1       0.046  -1.731   0.098  1.00  0.00     0.054 A 
ENDROOT
BRANCH   1  13
ATOM     13  C   UNL     1      -0.177  -4.116  -0.206  1.00  0.00     0.119 C 
ATOM     14  C   UNL     1      -0.120  -4.731   1.196  1.00  0.00     0.027 C 
ENDBRANCH   1  13
BRANCH   3  15
ATOM     15  C   UNL     1      -4.127  -1.158  -0.255  1.00  0.00     0.262 C 
ATOM     16  N   UNL     1      -4.789   0.056  -0.178  1.00  0.00    -0.306 N 
ATOM     17  O   UNL     1      -4.822  -2.216  -0.451  1.00  0.00    -0.269 OA
ATOM     18  H   UNL     1      -4.220   0.845  -0.027  1.00  0.00     0.171 HD
BRANCH  16  19
ATOM     19  C   UNL     1      -6.165   0.308  -0.287  1.00  0.00     0.147 A 
ATOM     20  C   UNL     1      -6.673   1.617  -0.182  1.00  0.00     0.132 A 
ATOM     21  N   UNL     1      -7.207  -0.554  -0.495  1.00  0.00    -0.284 N 
ATOM     22  N   UNL     1      -8.000   1.486  -0.332  1.00  0.00    -0.225 NA
ATOM     23  C   UNL     1      -7.295  -1.883  -0.662  1.00  0.00     0.110 A 
ATOM     24  C   UNL     1      -8.316   0.203  -0.517  1.00  0.00     0.139 A 
ATOM     25  C   UNL     1      -8.496  -2.499  -0.856  1.00  0.00     0.034 A 
ATOM     26  C   UNL     1      -9.530  -0.412  -0.713  1.00  0.00     0.049 A 
ATOM     27  C   UNL     1      -9.681  -1.768  -0.889  1.00  0.00     0.021 A 
ATOM     28  Br  UNL     1      -8.670  -4.387  -1.098  1.00  0.00    -0.049 Br
BRANCH  20  29
ATOM     29  C   UNL     1      -5.947   2.853   0.038  1.00  0.00     0.092 A 
ATOM     30  C   UNL     1      -6.634   4.058   0.112  1.00  0.00     0.031 A 
ATOM     31  N   UNL     1      -4.625   2.897   0.177  1.00  0.00    -0.254 NA
ATOM     32  C   UNL     1      -5.959   5.250   0.322  1.00  0.00     0.004 A 
ATOM     33  C   UNL     1      -3.936   4.040   0.382  1.00  0.00     0.112 A 
ATOM     34  C   UNL     1      -4.588   5.252   0.461  1.00  0.00     0.020 A 
ENDBRANCH  20  29
ENDBRANCH  16  19
ENDBRANCH   3  15
BRANCH  10  35
ATOM     35  N   UNL     1       3.690  -1.126   0.536  1.00  0.00    -0.366 N 
ATOM     36  C   UNL     1       4.364  -0.730   1.759  1.00  0.00     0.138 C 
ATOM     37  C   UNL     1       4.501  -1.711  -0.514  1.00  0.00     0.138 C 
ATOM     38  C   UNL     1       5.474   0.236   1.329  1.00  0.00     0.141 C 
ATOM     39  C   UNL     1       5.639  -0.804  -0.924  1.00  0.00     0.141 C 
ATOM     40  N   UNL     1       6.264  -0.295   0.271  1.00  0.00    -0.339 N 
ATOM     41  C   UNL     1       7.696  -0.326   0.393  1.00  0.00     0.223 C 
ATOM     42  O   UNL     1       8.379  -0.795  -0.542  1.00  0.00    -0.275 OA
BRANCH  41  43
ATOM     43  C   UNL     1       8.322   0.185   1.598  1.00  0.00     0.105 C 
BRANCH  43  44
ATOM     44  C   UNL     1       9.795   0.290   1.491  1.00  0.00     0.045 C 
BRANCH  44  45
ATOM     45  C   UNL     1      10.180   1.234   0.419  1.00  0.00    -0.048 A 
ATOM     46  C   UNL     1      10.434   0.879  -0.862  1.00  0.00     0.004 A 
ATOM     47  C   UNL     1      10.301   2.603   0.712  1.00  0.00     0.004 A 
ATOM     48  C   UNL     1      10.789   1.774  -1.834  1.00  0.00     0.000 A 
ATOM     49  C   UNL     1      10.652   3.529  -0.226  1.00  0.00     0.000 A 
ATOM     50  C   UNL     1      10.904   3.120  -1.530  1.00  0.00     0.000 A 
ENDBRANCH  44  45
ENDBRANCH  43  44
ENDBRANCH  41  43
ENDBRANCH  10  35
TORSDOF 8
